<?xml version="1.0" encoding="UTF-8"?>

<!-- generated on 2024-05-15 18:23:28 by Eclipse SUMO netedit Version 1.19.0
<configuration xmlns:xsi="http://www.w3.org/2001/XMLSchema-instance" xsi:noNamespaceSchemaLocation="http://sumo.dlr.de/xsd/neteditConfiguration.xsd">

    <input>
        <sumo-net-file value="D:\SUMO\d3e_online\evropska.net.xml"/>
    </input>

    <output>
        <output-file value="D:\SUMO\d3e_online\evropska.net.xml"/>
        <output.street-names value="true"/>
    </output>

    <processing>
        <geometry.min-radius.fix.railways value="false"/>
        <geometry.max-grade.fix value="false"/>
        <offset.disable-normalization value="true"/>
        <lefthand value="0"/>
    </processing>

    <tls_building>
        <tls.ignore-internal-junction-jam value="1"/>
    </tls_building>

    <junctions>
        <no-internal-links value="false"/>
        <no-turnarounds value="true"/>
        <junctions.corner-detail value="5"/>
        <junctions.limit-turn-speed value="5.50"/>
        <rectangular-lane-cut value="0"/>
    </junctions>

    <pedestrian>
        <walkingareas value="1"/>
    </pedestrian>

</configuration>
-->

<net version="1.16" junctionCornerDetail="5" walkingareas="true" limitTurnSpeed="5.50" tlsIgnoreInternalJunctionJam="1" xmlns:xsi="http://www.w3.org/2001/XMLSchema-instance" xsi:noNamespaceSchemaLocation="http://sumo.dlr.de/xsd/net_file.xsd">

    <location netOffset="-451809.22,-5548698.62" convBoundary="935.60,556.69,5703.30,2012.64" origBoundary="14.316026,49.994522,14.460502,50.113983" projParameter="+proj=utm +zone=33 +ellps=WGS84 +datum=WGS84 +units=m +no_defs"/>

    <type id="highway.footway" priority="1" numLanes="1" speed="2.78" allow="pedestrian" oneway="1" width="2.00"/>
    <type id="highway.primary" priority="12" numLanes="2" speed="13.89" disallow="pedestrian tram rail_urban rail rail_electric rail_fast ship" oneway="0" sidewalkWidth="3.00"/>
    <type id="highway.primary_link" priority="7" numLanes="1" speed="13.89" disallow="pedestrian tram rail_urban rail rail_electric rail_fast ship" oneway="0" sidewalkWidth="3.00"/>
    <type id="highway.residential" priority="3" numLanes="1" speed="13.89" disallow="pedestrian tram rail_urban rail rail_electric rail_fast ship" oneway="0" sidewalkWidth="2.00"/>
    <type id="highway.secondary" priority="11" numLanes="1" speed="13.89" disallow="pedestrian tram rail_urban rail rail_electric rail_fast ship" oneway="0" sidewalkWidth="3.00"/>
    <type id="highway.service" priority="1" numLanes="1" speed="5.56" allow="pedestrian delivery bicycle" oneway="0"/>
    <type id="highway.steps" priority="1" numLanes="1" speed="1.39" allow="pedestrian" oneway="1" width="2.00"/>
    <type id="highway.tertiary" priority="10" numLanes="1" speed="13.89" disallow="pedestrian tram rail_urban rail rail_electric rail_fast ship" oneway="0" sidewalkWidth="3.00"/>
    <type id="highway.trunk_link" priority="8" numLanes="1" speed="13.89" disallow="pedestrian bicycle tram rail_urban rail rail_electric rail_fast ship" oneway="0"/>
    <type id="railway.subway" priority="18" numLanes="1" speed="27.78" allow="rail_urban" oneway="1"/>
    <type id="railway.tram" priority="17" numLanes="1" speed="13.89" allow="tram" oneway="1"/>

    <edge id=":0_0" function="internal">
        <lane id=":0_0_0" index="0" disallow="pedestrian tram rail_urban rail rail_electric rail_fast ship" speed="12.50" length="13.31" shape="2182.13,1765.39 2182.43,1769.32 2182.42,1772.03 2182.16,1774.73 2181.71,1778.66"/>
    </edge>
    <edge id=":0_1" function="internal">
        <lane id=":0_1_0" index="0" disallow="pedestrian tram rail_urban rail rail_electric rail_fast ship" speed="12.50" length="12.65" shape="2178.32,1778.30 2178.73,1774.57 2179.08,1772.00 2179.22,1769.44 2178.99,1765.71"/>
    </edge>
    <edge id=":0_w0" function="walkingarea">
        <lane id=":0_w0_0" index="0" allow="pedestrian" speed="2.78" length="13.90" width="3.00" shape="2183.30,1778.82 2186.29,1779.14 2186.62,1776.12 2186.88,1773.89 2187.03,1772.04 2187.07,1770.19 2186.96,1767.95 2186.71,1764.94 2183.72,1765.23 2183.97,1768.12 2184.06,1770.27 2184.02,1772.03 2183.87,1773.80 2183.63,1775.94"/>
    </edge>
    <edge id=":0_w1" function="walkingarea">
        <lane id=":0_w1_0" index="0" allow="pedestrian" speed="2.78" length="11.97" width="3.00" shape="2177.40,1765.87 2174.41,1766.17 2173.74,1777.85 2176.73,1778.10 2176.99,1775.55 2177.26,1773.62 2177.48,1772.02 2177.61,1770.42 2177.60,1768.48"/>
    </edge>
    <edge id=":1_0" function="internal">
        <lane id=":1_0_0" index="0" disallow="pedestrian tram rail_urban rail rail_electric rail_fast ship" speed="8.33" length="6.51" shape="5619.46,994.02 5617.54,993.85 5616.22,993.71 5614.90,993.63 5612.97,993.67"/>
    </edge>
    <edge id=":1_1" function="internal">
        <lane id=":1_1_0" index="0" disallow="pedestrian tram rail_urban rail rail_electric rail_fast ship" speed="8.33" length="6.88" shape="5612.80,990.47 5614.83,990.44 5616.23,990.52 5617.62,990.67 5619.66,990.84"/>
    </edge>
    <edge id=":1_c0" function="crossing" crossingEdges="10068 10080">
        <lane id=":1_c0_0" index="0" allow="pedestrian" speed="2.78" length="6.37" width="4.00" shape="5617.76,989.12 5617.36,995.48"/>
    </edge>
    <edge id=":1_w0" function="walkingarea">
        <lane id=":1_w0_0" index="0" allow="pedestrian" speed="2.78" length="4.25" width="4.00" shape="5613.07,995.26 5613.15,997.26 5619.23,997.61 5619.36,995.61 5618.01,995.51 5617.02,995.40 5616.20,995.31 5615.38,995.25 5614.38,995.23"/>
    </edge>
    <edge id=":1_w1" function="walkingarea">
        <lane id=":1_w1_0" index="0" allow="pedestrian" speed="2.78" length="4.89" width="4.00" shape="5619.76,989.25 5619.89,987.25 5618.34,987.13 5617.19,987.02 5616.25,986.92 5615.31,986.85 5614.16,986.83 5612.61,986.88 5612.70,988.87 5614.23,988.83 5615.33,988.85 5616.25,988.92 5617.16,989.02 5618.26,989.13"/>
    </edge>
    <edge id=":100_0" function="internal">
        <lane id=":100_0_0" index="0" disallow="pedestrian bicycle tram rail_urban rail rail_electric rail_fast ship" speed="13.89" length="36.02" width="4.00" shape="5108.33,679.91 5143.30,688.55"/>
    </edge>
    <edge id=":100_1" function="internal">
        <lane id=":100_1_0" index="0" disallow="pedestrian tram rail_urban rail rail_electric rail_fast ship" speed="13.89" length="32.63" shape="5108.33,679.91 5117.85,683.01 5125.47,685.94 5132.10,688.85 5138.64,691.90"/>
        <lane id=":100_1_1" index="1" disallow="pedestrian tram rail_urban rail rail_electric rail_fast ship" speed="13.89" length="32.17" shape="5107.41,682.98 5116.86,686.05 5124.34,688.92 5130.81,691.78 5137.28,694.80"/>
    </edge>
    <edge id=":101_0" function="internal">
        <lane id=":101_0_0" index="0" disallow="pedestrian tram rail_urban rail rail_electric rail_fast ship" speed="13.06" length="19.22" width="4.50" shape="4972.51,1340.30 4965.70,1344.32 4960.79,1348.31 4957.76,1352.27"/>
    </edge>
    <edge id=":101_1" function="internal">
        <lane id=":101_1_0" index="0" disallow="pedestrian tram rail_urban rail rail_electric rail_fast ship" speed="13.89" length="18.12" width="4.10" shape="4970.61,1336.66 4959.59,1341.12 4953.42,1341.96"/>
        <lane id=":101_1_1" index="1" disallow="pedestrian tram rail_urban rail rail_electric rail_fast ship" speed="13.89" length="17.75" width="4.10" shape="4970.61,1336.66 4961.24,1340.14 4953.49,1340.59"/>
        <lane id=":101_1_2" index="2" disallow="pedestrian tram rail_urban rail rail_electric rail_fast ship" speed="13.89" length="16.18" width="4.10" shape="4968.71,1333.03 4957.20,1338.03 4953.66,1338.80"/>
        <lane id=":101_1_3" index="3" disallow="pedestrian tram rail_urban rail rail_electric rail_fast ship" speed="13.89" length="15.84" width="4.10" shape="4968.71,1333.03 4958.86,1337.05 4953.71,1337.80"/>
    </edge>
    <edge id=":101_9" function="internal">
        <lane id=":101_9_0" index="0" disallow="pedestrian tram rail_urban rail rail_electric rail_fast ship" speed="13.06" length="4.08" width="4.50" shape="4957.76,1352.27 4956.61,1356.18"/>
    </edge>
    <edge id=":101_10" function="internal">
        <lane id=":101_10_0" index="0" disallow="pedestrian tram rail_urban rail rail_electric rail_fast ship" speed="13.89" length="22.97" width="4.10" shape="4953.42,1341.96 4949.46,1342.51 4940.23,1340.84 4931.88,1336.10"/>
    </edge>
    <edge id=":101_11" function="internal">
        <lane id=":101_11_0" index="0" disallow="pedestrian tram rail_urban rail rail_electric rail_fast ship" speed="13.89" length="20.90" width="4.10" shape="4953.49,1340.59 4952.09,1340.67 4943.15,1338.25 4934.43,1332.89"/>
    </edge>
    <edge id=":101_12" function="internal">
        <lane id=":101_12_0" index="0" disallow="pedestrian tram rail_urban rail rail_electric rail_fast ship" speed="13.89" length="22.77" width="4.10" shape="4953.66,1338.80 4947.23,1340.20 4938.79,1339.56 4931.88,1336.10"/>
    </edge>
    <edge id=":101_13" function="internal">
        <lane id=":101_13_0" index="0" disallow="pedestrian tram rail_urban rail rail_electric rail_fast ship" speed="13.89" length="20.51" width="4.10" shape="4953.71,1337.80 4949.86,1338.36 4941.71,1336.98 4934.43,1332.89"/>
    </edge>
    <edge id=":101_5" function="internal">
        <lane id=":101_5_0" index="0" allow="tram" speed="13.89" length="24.21" shape="4952.13,1331.72 4950.43,1355.87"/>
    </edge>
    <edge id=":101_6" function="internal">
        <lane id=":101_6_0" index="0" disallow="pedestrian tram rail_urban rail rail_electric rail_fast ship" speed="12.95" length="19.81" width="4.10" shape="4939.91,1355.33 4939.35,1351.54 4937.39,1347.62 4934.06,1343.54 4929.34,1339.32"/>
        <lane id=":101_6_1" index="1" disallow="pedestrian tram rail_urban rail rail_electric rail_fast ship" speed="13.51" length="21.63" width="4.10" shape="4939.91,1355.33 4939.57,1349.43 4938.12,1344.26 4935.56,1339.82 4931.88,1336.10"/>
    </edge>
    <edge id=":101_8" function="internal">
        <lane id=":101_8_0" index="0" allow="tram" speed="13.89" length="24.28" shape="4946.70,1355.67 4948.26,1331.45"/>
    </edge>
    <edge id=":101_c0" function="crossing" crossingEdges="10140">
        <lane id=":101_c0_0" index="0" allow="pedestrian" speed="2.78" length="4.00" width="4.00" shape="4941.98,1353.39 4937.98,1353.26"/>
    </edge>
    <edge id=":101_c1" function="crossing" crossingEdges="10246 10254">
        <lane id=":101_c1_0" index="0" allow="pedestrian" speed="2.78" length="6.95" width="4.00" shape="4952.16,1353.98 4945.23,1353.58"/>
    </edge>
    <edge id=":101_c2" function="crossing" crossingEdges="10399">
        <lane id=":101_c2_0" index="0" allow="pedestrian" speed="2.78" length="4.50" width="4.00" shape="4958.96,1354.30 4954.47,1354.07"/>
    </edge>
    <edge id=":101_w0" function="walkingarea">
        <lane id=":101_w0_0" index="0" allow="pedestrian" speed="2.78" length="13.28" width="4.50" shape="4958.86,1356.30 4963.35,1356.53 4975.35,1345.75 4973.46,1342.11 4969.09,1344.57 4965.50,1347.00 4962.68,1349.38 4960.64,1351.72 4959.36,1354.03"/>
    </edge>
    <edge id=":101_w1" function="walkingarea">
        <lane id=":101_w1_0" index="0" allow="pedestrian" speed="2.78" length="11.28" width="4.10" shape="4928.06,1340.92 4925.51,1344.13 4933.92,1355.05 4937.92,1355.19 4937.70,1353.10 4936.92,1350.84 4935.56,1348.50 4933.63,1346.07 4931.13,1343.54"/>
    </edge>
    <edge id=":101_w2" function="walkingarea">
        <lane id=":101_w2_0" index="0" allow="pedestrian" speed="2.78" length="3.25" width="4.00" shape="4945.34,1351.58 4945.11,1355.57 4941.91,1355.39 4942.05,1351.40"/>
    </edge>
    <edge id=":101_w3" function="walkingarea">
        <lane id=":101_w3_0" index="0" allow="pedestrian" speed="2.78" length="2.31" width="4.00" shape="4954.57,1352.07 4954.37,1356.07 4952.05,1355.98 4952.28,1351.99"/>
    </edge>
    <edge id=":102_0" function="internal">
        <lane id=":102_0_0" index="0" disallow="pedestrian tram rail_urban rail rail_electric rail_fast ship" speed="13.89" length="20.73" width="4.50" shape="4933.26,1728.95 4931.52,1749.60"/>
    </edge>
    <edge id=":102_1" function="internal">
        <lane id=":102_1_0" index="0" disallow="pedestrian tram rail_urban rail rail_electric rail_fast ship" speed="13.61" length="16.31" width="3.00" shape="4933.26,1728.95 4932.54,1735.90 4931.19,1739.26 4927.34,1740.17 4925.60,1740.10"/>
    </edge>
    <edge id=":102_9" function="internal">
        <lane id=":102_9_0" index="0" disallow="pedestrian tram rail_urban rail rail_electric rail_fast ship" speed="13.61" length="25.67" width="3.00" shape="4925.60,1740.10 4914.62,1739.67 4900.28,1736.49"/>
    </edge>
    <edge id=":102_2" function="internal">
        <lane id=":102_2_0" index="0" allow="tram" speed="13.89" length="20.80" shape="4923.42,1728.20 4921.86,1748.94"/>
    </edge>
    <edge id=":102_3" function="internal">
        <lane id=":102_3_0" index="0" allow="emergency authority taxi bus bicycle custom1 custom2" speed="7.28" length="11.55" width="3.00" shape="4900.50,1733.44 4903.75,1733.23 4906.15,1732.09 4907.70,1730.03 4908.39,1727.05"/>
        <lane id=":102_3_1" index="1" disallow="pedestrian tram rail_urban rail rail_electric rail_fast ship" speed="8.00" length="14.15" shape="4900.50,1733.44 4905.11,1733.32 4908.47,1732.25 4910.60,1730.24 4911.48,1727.29"/>
    </edge>
    <edge id=":102_5" function="internal">
        <lane id=":102_5_0" index="0" disallow="pedestrian tram rail_urban rail rail_electric rail_fast ship" speed="13.73" length="43.95" width="4.50" shape="4900.48,1733.44 4914.40,1735.77 4928.30,1736.41 4931.03,1736.92 4932.46,1739.14 4931.54,1749.61"/>
    </edge>
    <edge id=":102_6" function="internal">
        <lane id=":102_6_0" index="0" disallow="pedestrian tram rail_urban rail rail_electric rail_fast ship" speed="8.84" length="13.17" width="3.00" shape="4909.88,1748.11 4909.58,1743.28 4907.89,1739.74 4904.79,1737.47 4904.23,1737.35"/>
    </edge>
    <edge id=":102_7" function="internal">
        <lane id=":102_7_0" index="0" disallow="pedestrian tram rail_urban rail rail_electric rail_fast ship" speed="13.89" length="20.88" shape="4909.88,1748.11 4911.48,1727.29"/>
    </edge>
    <edge id=":102_10" function="internal">
        <lane id=":102_10_0" index="0" disallow="pedestrian tram rail_urban rail rail_electric rail_fast ship" speed="8.84" length="4.05" width="3.00" shape="4904.23,1737.35 4900.28,1736.49"/>
    </edge>
    <edge id=":102_8" function="internal">
        <lane id=":102_8_0" index="0" allow="tram" speed="13.89" length="20.82" shape="4919.14,1748.75 4920.44,1727.97"/>
    </edge>
    <edge id=":102_c0" function="crossing" crossingEdges="10014 10077">
        <lane id=":102_c0_0" index="0" allow="pedestrian" speed="2.78" length="6.05" width="4.00" shape="4902.18,1738.12 4902.60,1732.08"/>
    </edge>
    <edge id=":102_c1" function="crossing" crossingEdges="10115">
        <lane id=":102_c1_0" index="0" allow="pedestrian" speed="2.78" length="4.50" width="4.00" shape="4912.27,1746.28 4907.78,1745.95"/>
    </edge>
    <edge id=":102_c2" function="crossing" crossingEdges="10244 10257">
        <lane id=":102_c2_0" index="0" allow="pedestrian" speed="2.78" length="5.91" width="4.00" shape="4923.60,1747.06 4917.71,1746.63"/>
    </edge>
    <edge id=":102_c3" function="crossing" crossingEdges="10137">
        <lane id=":102_c3_0" index="0" allow="pedestrian" speed="2.78" length="4.50" width="4.00" shape="4933.90,1747.76 4929.41,1747.45"/>
    </edge>
    <edge id=":102_w0" function="walkingarea">
        <lane id=":102_w0_0" index="0" allow="pedestrian" speed="2.78" length="14.19" width="4.50" shape="4934.04,1745.77 4933.76,1749.76 4938.25,1750.07 4939.99,1729.49 4935.51,1729.10"/>
    </edge>
    <edge id=":102_w1" function="walkingarea">
        <lane id=":102_w1_0" index="0" allow="pedestrian" speed="2.78" length="4.80" width="4.00" shape="4906.89,1726.94 4903.90,1726.71 4900.80,1728.95 4900.60,1731.95 4902.41,1731.92 4903.91,1731.56 4905.11,1730.89 4906.01,1729.90 4906.61,1728.58"/>
    </edge>
    <edge id=":102_w2" function="walkingarea">
        <lane id=":102_w2_0" index="0" allow="pedestrian" speed="2.78" length="7.55" width="4.50" shape="4900.18,1737.98 4899.98,1740.98 4903.14,1747.63 4907.63,1747.97 4907.62,1745.05 4907.12,1742.65 4906.12,1740.74 4904.63,1739.33 4902.65,1738.41"/>
    </edge>
    <edge id=":102_w3" function="walkingarea">
        <lane id=":102_w3_0" index="0" allow="pedestrian" speed="2.78" length="5.45" width="4.00" shape="4917.86,1744.63 4917.56,1748.62 4912.12,1748.28 4912.42,1744.29"/>
    </edge>
    <edge id=":102_w4" function="walkingarea">
        <lane id=":102_w4_0" index="0" allow="pedestrian" speed="2.78" length="5.82" width="4.00" shape="4929.55,1745.46 4929.27,1749.45 4923.45,1749.06 4923.75,1745.07"/>
    </edge>
    <edge id=":103_0" function="internal">
        <lane id=":103_0_0" index="0" disallow="pedestrian tram rail_urban rail rail_electric rail_fast ship" speed="10.12" length="21.05" width="4.50" shape="4963.25,1392.73 4958.20,1394.06 4954.55,1396.97 4952.28,1401.46 4951.40,1407.53"/>
    </edge>
    <edge id=":103_1" function="internal">
        <lane id=":103_1_0" index="0" disallow="pedestrian tram rail_urban rail rail_electric rail_fast ship" speed="9.97" length="25.04" shape="4963.25,1392.73 4954.36,1393.27 4947.19,1392.85 4942.48,1391.04 4940.93,1387.45"/>
    </edge>
    <edge id=":103_2" function="internal">
        <lane id=":103_2_0" index="0" disallow="pedestrian tram rail_urban rail rail_electric rail_fast ship" speed="13.89" length="19.63" width="4.50" shape="4954.96,1388.29 4954.23,1394.04 4953.09,1397.90 4952.00,1401.77 4951.40,1407.53"/>
    </edge>
    <edge id=":103_3" function="internal">
        <lane id=":103_3_0" index="0" allow="tram" speed="13.89" length="19.60" shape="4948.18,1387.88 4946.32,1407.39"/>
    </edge>
    <edge id=":103_4" function="internal">
        <lane id=":103_4_0" index="0" allow="delivery bicycle" speed="6.66" length="12.99" shape="4928.13,1389.76 4932.16,1391.64 4935.10,1391.85 4936.96,1390.39 4937.74,1387.25"/>
    </edge>
    <edge id=":103_5" function="internal">
        <lane id=":103_5_0" index="0" allow="delivery bicycle" speed="9.72" length="31.53" shape="4928.13,1389.76 4940.08,1393.96 4946.96,1397.83 4951.05,1403.90 4951.40,1407.53"/>
    </edge>
    <edge id=":103_6" function="internal">
        <lane id=":103_6_0" index="0" allow="emergency authority taxi bus bicycle custom1 custom2" speed="13.89" length="19.86" shape="4936.13,1407.11 4937.74,1387.25"/>
        <lane id=":103_6_1" index="1" disallow="pedestrian tram rail_urban rail rail_electric rail_fast ship" speed="13.89" length="19.86" shape="4939.33,1407.18 4940.93,1387.45"/>
    </edge>
    <edge id=":103_8" function="internal">
        <lane id=":103_8_0" index="0" allow="tram" speed="13.89" length="19.68" shape="4943.37,1407.31 4944.68,1387.67"/>
    </edge>
    <edge id=":103_c0" function="crossing" crossingEdges="10329">
        <lane id=":103_c0_0" index="0" allow="pedestrian" speed="2.78" length="3.70" width="4.00" shape="4961.08,1391.08 4961.43,1394.76"/>
    </edge>
    <edge id=":103_c1" function="crossing" crossingEdges="10145">
        <lane id=":103_c1_0" index="0" allow="pedestrian" speed="2.78" length="3.20" width="4.00" shape="4929.03,1392.16 4930.67,1389.41"/>
    </edge>
    <edge id=":103_c2" function="crossing" crossingEdges="10145">
        <lane id=":103_c2_0" index="0" allow="pedestrian" speed="2.78" length="3.20" width="4.00" shape="4929.03,1392.16 4930.67,1389.41"/>
    </edge>
    <edge id=":103_c3" function="crossing" crossingEdges="10226">
        <lane id=":103_c3_0" index="0" allow="pedestrian" speed="2.78" length="6.40" width="4.00" shape="4941.07,1405.30 4934.68,1405.00"/>
    </edge>
    <edge id=":103_c4" function="crossing" crossingEdges="10247 10253">
        <lane id=":103_c4_0" index="0" allow="pedestrian" speed="2.78" length="6.15" width="4.00" shape="4948.06,1405.51 4941.91,1405.20"/>
    </edge>
    <edge id=":103_c5" function="crossing" crossingEdges="10085">
        <lane id=":103_c5_0" index="0" allow="pedestrian" speed="2.78" length="4.50" width="4.00" shape="4953.70,1405.59 4949.21,1405.47"/>
    </edge>
    <edge id=":103_w0" function="walkingarea">
        <lane id=":103_w0_0" index="0" allow="pedestrian" speed="2.78" length="10.03" width="4.50" shape="4953.65,1407.59 4958.15,1407.71 4963.76,1398.26 4963.42,1394.57 4960.53,1395.18 4958.14,1396.41 4956.26,1398.27 4954.88,1400.75 4954.01,1403.86"/>
    </edge>
    <edge id=":103_w1" function="walkingarea">
        <lane id=":103_w1_0" index="0" allow="pedestrian" speed="2.78" length="3.00" width="4.50" shape="4963.07,1390.89 4961.70,1388.67 4957.21,1388.44 4957.33,1389.32 4957.79,1390.03 4958.60,1390.55 4959.75,1390.86 4961.24,1390.98"/>
    </edge>
    <edge id=":103_w2" function="walkingarea">
        <lane id=":103_w2_0" index="0" allow="pedestrian" speed="2.78" length="4.02" width="4.00" shape="4936.14,1387.16 4933.15,1386.98 4929.97,1386.67 4928.95,1388.38 4931.06,1389.49 4932.80,1390.07 4934.18,1390.12 4935.20,1389.66 4935.85,1388.67"/>
    </edge>
    <edge id=":103_w3" function="walkingarea">
        <lane id=":103_w3_0" index="0" allow="pedestrian" speed="2.78" length="10.68" width="4.00" shape="4927.31,1391.13 4931.53,1406.92 4934.52,1407.13 4934.58,1407.00 4934.55,1403.47 4934.08,1400.30 4933.12,1397.48 4931.68,1395.02 4929.74,1392.90"/>
    </edge>
    <edge id=":103_w4" function="walkingarea">
        <lane id=":103_w4_0" index="0" allow="pedestrian" speed="2.78" length="0.85" width="4.00" shape="4942.01,1403.20 4941.82,1407.20 4940.98,1407.30 4941.16,1403.30"/>
    </edge>
    <edge id=":103_w5" function="walkingarea">
        <lane id=":103_w5_0" index="0" allow="pedestrian" speed="2.78" length="1.15" width="4.00" shape="4949.26,1403.47 4949.15,1407.47 4947.96,1407.50 4948.16,1403.51"/>
    </edge>
    <edge id=":104_0" function="internal">
        <lane id=":104_0_0" index="0" disallow="pedestrian tram rail_urban rail rail_electric rail_fast ship" speed="13.89" length="7.03" width="3.00" shape="4680.91,1669.26 4676.58,1663.72"/>
    </edge>
    <edge id=":104_1" function="internal">
        <lane id=":104_1_0" index="0" disallow="pedestrian tram rail_urban rail rail_electric rail_fast ship" speed="13.89" length="6.95" width="3.00" shape="4678.90,1661.79 4683.15,1667.29"/>
    </edge>
    <edge id=":104_c0" function="crossing" crossingEdges="10005 10097">
        <lane id=":104_c0_0" index="0" allow="pedestrian" speed="2.78" length="6.03" width="4.00" shape="4676.76,1666.22 4681.35,1662.31"/>
    </edge>
    <edge id=":104_w0" function="walkingarea">
        <lane id=":104_w0_0" index="0" allow="pedestrian" speed="2.78" length="4.83" width="4.00" shape="4678.05,1667.74 4675.45,1664.71 4673.94,1666.02 4678.29,1671.57 4679.79,1670.25"/>
    </edge>
    <edge id=":104_w1" function="walkingarea">
        <lane id=":104_w1_0" index="0" allow="pedestrian" speed="2.78" length="4.71" width="4.00" shape="4684.27,1666.30 4685.77,1664.97 4681.54,1659.49 4680.03,1660.80 4682.64,1663.83"/>
    </edge>
    <edge id=":105_0" function="internal">
        <lane id=":105_0_0" index="0" disallow="pedestrian tram rail_urban rail rail_electric rail_fast ship" speed="13.89" length="39.80" shape="2060.06,956.81 2021.56,946.72"/>
        <lane id=":105_0_1" index="1" disallow="pedestrian tram rail_urban rail rail_electric rail_fast ship" speed="13.89" length="39.80" shape="2060.90,953.72 2022.40,943.63"/>
    </edge>
    <edge id=":105_2" function="internal">
        <lane id=":105_2_0" index="0" allow="tram" speed="13.89" length="39.78" shape="2062.15,949.08 2023.77,938.61"/>
    </edge>
    <edge id=":105_3" function="internal">
        <lane id=":105_3_0" index="0" disallow="pedestrian tram rail_urban rail rail_electric rail_fast ship" speed="13.89" length="39.76" shape="2026.87,927.24 2065.26,937.58"/>
        <lane id=":105_3_1" index="1" disallow="pedestrian tram rail_urban rail rail_electric rail_fast ship" speed="13.89" length="39.76" shape="2026.03,930.32 2064.42,940.67"/>
    </edge>
    <edge id=":105_5" function="internal">
        <lane id=":105_5_0" index="0" allow="tram" speed="13.89" length="39.77" shape="2024.62,935.50 2062.97,946.03"/>
    </edge>
    <edge id=":105_c0" function="crossing" crossingEdges="10220">
        <lane id=":105_c0_0" index="0" allow="pedestrian" speed="2.78" length="6.40" width="4.00" shape="2059.39,951.65 2057.71,957.83"/>
    </edge>
    <edge id=":105_c1" function="crossing" crossingEdges="10295 10202">
        <lane id=":105_c1_0" index="0" allow="pedestrian" speed="2.78" length="6.35" width="4.00" shape="2061.45,943.98 2059.80,950.12"/>
    </edge>
    <edge id=":105_c2" function="crossing" crossingEdges="10126">
        <lane id=":105_c2_0" index="0" allow="pedestrian" speed="2.78" length="6.40" width="4.00" shape="2063.74,935.52 2062.07,941.70"/>
    </edge>
    <edge id=":105_c3" function="crossing" crossingEdges="10323">
        <lane id=":105_c3_0" index="0" allow="pedestrian" speed="2.78" length="6.40" width="4.00" shape="2027.55,932.39 2029.22,926.21"/>
    </edge>
    <edge id=":105_c4" function="crossing" crossingEdges="10203 10316">
        <lane id=":105_c4_0" index="0" allow="pedestrian" speed="2.78" length="6.42" width="4.00" shape="2025.28,940.68 2026.97,934.48"/>
    </edge>
    <edge id=":105_c5" function="crossing" crossingEdges="10125">
        <lane id=":105_c5_0" index="0" allow="pedestrian" speed="2.78" length="6.40" width="4.00" shape="2023.07,948.79 2024.76,942.61"/>
    </edge>
    <edge id=":105_w0" function="walkingarea">
        <lane id=":105_w0_0" index="0" allow="pedestrian" speed="2.78" length="26.05" width="4.00" shape="2025.00,949.31 2021.14,948.26 2020.35,951.15 2058.86,961.25 2059.65,958.35 2055.78,957.30"/>
    </edge>
    <edge id=":105_w1" function="walkingarea">
        <lane id=":105_w1_0" index="0" allow="pedestrian" speed="2.78" length="26.01" width="4.00" shape="2061.81,935.00 2065.67,936.04 2066.46,933.14 2028.08,922.80 2027.30,925.69 2031.15,926.73"/>
    </edge>
    <edge id=":105_w2" function="walkingarea">
        <lane id=":105_w2_0" index="0" allow="pedestrian" speed="2.78" length="1.59" width="4.00" shape="2057.87,949.60 2061.74,950.63 2061.32,952.17 2057.45,951.13"/>
    </edge>
    <edge id=":105_w3" function="walkingarea">
        <lane id=":105_w3_0" index="0" allow="pedestrian" speed="2.78" length="2.37" width="4.00" shape="2060.14,941.17 2064.00,942.22 2063.38,944.49 2059.51,943.46"/>
    </edge>
    <edge id=":105_w4" function="walkingarea">
        <lane id=":105_w4_0" index="0" allow="pedestrian" speed="2.78" length="2.17" width="4.00" shape="2028.90,935.01 2025.05,933.96 2025.62,931.87 2029.48,932.91"/>
    </edge>
    <edge id=":105_w5" function="walkingarea">
        <lane id=":105_w5_0" index="0" allow="pedestrian" speed="2.78" length="2.01" width="4.00" shape="2026.68,943.14 2022.83,942.09 2023.35,940.15 2027.21,941.20"/>
    </edge>
    <edge id=":106_0" function="internal">
        <lane id=":106_0_0" index="0" allow="tram" speed="13.89" length="27.41" shape="2608.64,1074.48 2581.40,1071.53"/>
    </edge>
    <edge id=":106_1" function="internal">
        <lane id=":106_1_0" index="0" disallow="pedestrian tram rail_urban rail rail_electric rail_fast ship" speed="13.89" length="27.01" shape="2583.10,1059.21 2609.81,1062.76"/>
        <lane id=":106_1_1" index="1" disallow="pedestrian tram rail_urban rail rail_electric rail_fast ship" speed="13.89" length="27.01" shape="2582.66,1062.38 2609.49,1065.94"/>
    </edge>
    <edge id=":106_3" function="internal">
        <lane id=":106_3_0" index="0" allow="tram" speed="13.89" length="27.28" shape="2581.85,1068.26 2608.95,1071.39"/>
    </edge>
    <edge id=":106_4" function="internal">
        <lane id=":106_4_0" index="0" disallow="pedestrian tram rail_urban rail rail_electric rail_fast ship" speed="13.89" length="27.65" shape="2607.83,1082.58 2580.34,1079.18"/>
        <lane id=":106_4_1" index="1" disallow="pedestrian tram rail_urban rail rail_electric rail_fast ship" speed="13.89" length="27.65" shape="2608.15,1079.39 2580.78,1076.01"/>
    </edge>
    <edge id=":106_w0" function="walkingarea">
        <lane id=":106_w0_0" index="0" allow="pedestrian" speed="2.78" length="26.83" width="3.00" shape="2609.97,1061.17 2610.27,1058.18 2583.74,1054.65 2583.32,1057.62"/>
    </edge>
    <edge id=":106_w1" function="walkingarea">
        <lane id=":106_w1_0" index="0" allow="pedestrian" speed="2.78" length="27.83" width="3.00" shape="2580.12,1080.76 2579.71,1083.74 2607.37,1087.15 2607.69,1084.17"/>
    </edge>
    <edge id=":108_0" function="internal">
        <lane id=":108_0_0" index="0" disallow="pedestrian tram rail_urban rail rail_electric rail_fast ship" speed="11.80" length="20.32" width="4.10" shape="4966.81,1233.33 4967.60,1236.20 4970.24,1239.43 4974.72,1243.00 4981.04,1246.91"/>
        <lane id=":108_0_1" index="1" disallow="pedestrian tram rail_urban rail rail_electric rail_fast ship" speed="12.31" length="22.18" width="4.10" shape="4966.81,1233.33 4967.39,1238.15 4969.62,1242.61 4973.50,1246.72 4979.03,1250.48"/>
    </edge>
    <edge id=":108_2" function="internal">
        <lane id=":108_2_0" index="0" allow="tram" speed="13.89" length="19.48" shape="4959.25,1232.20 4957.88,1251.63"/>
    </edge>
    <edge id=":108_3" function="internal">
        <lane id=":108_3_0" index="0" disallow="pedestrian tram rail_urban rail rail_electric rail_fast ship" speed="11.96" length="22.15" width="4.20" shape="4933.16,1243.06 4940.42,1240.11 4947.60,1236.57 4949.47,1233.29 4949.80,1230.78"/>
    </edge>
    <edge id=":108_4" function="internal">